*NODE, NSET=Nall
1, 0, 0, 0
2, 0, 0, 0.1
3, 0, 0.1, 0
4, 0, 0.1, 0.1
5, 0.05, 0, 0
6, 0.05, 0, 0.1
7, 0.05, 0.1, 0
8, 0.05, 0.1, 0.1
9, 0.1, 0, 0
10, 0.1, 0, 0.1
11, 0.1, 0.1, 0
12, 0.1, 0.1, 0.1
13, 0.15, 0, 0
14, 0.15, 0, 0.1
15, 0.15, 0.1, 0
16, 0.15, 0.1, 0.1
17, 0.2, 0, 0
18, 0.2, 0, 0.1
19, 0.2, 0.1, 0
20, 0.2, 0.1, 0.1
** ... 64 like lines cut
*ELEMENT, TYPE=C3D8, ELSET=Eall
1, 1, 5, 7, 3, 2, 6, 8, 4
2, 5, 9, 11, 7, 6, 10, 12, 8
3, 9, 13, 15, 11, 10, 14, 16, 12
4, 13, 17, 19, 15, 14, 18, 20, 16
5, 17, 21, 23, 19, 18, 22, 24, 20
6, 21, 25, 27, 23, 22, 26, 28, 24
7, 25, 29, 31, 27, 26, 30, 32, 28
8, 29, 33, 35, 31, 30, 34, 36, 32
9, 33, 37, 39, 35, 34, 38, 40, 36
10, 37, 41, 43, 39, 38, 42, 44, 40
11, 41, 45, 47, 43, 42, 46, 48, 44
12, 45, 49, 51, 47, 46, 50, 52, 48
13, 49, 53, 55, 51, 50, 54, 56, 52
14, 53, 57, 59, 55, 54, 58, 60, 56
15, 57, 61, 63, 59, 58, 62, 64, 60
16, 61, 65, 67, 63, 62, 66, 68, 64
17, 65, 69, 71, 67, 66, 70, 72, 68
18, 69, 73, 75, 71, 70, 74, 76, 72
19, 73, 77, 79, 75, 74, 78, 80, 76
20, 77, 81, 83, 79, 78, 82, 84, 80
*NSET, NSET=Nfix
1, 2, 3, 4
*MATERIAL, NAME=STEEL
*ELASTIC
210000000000., 0.
*DENSITY
7800.
*SOLID SECTION, ELSET=Eall, MATERIAL=STEEL
*BOUNDARY
Nfix, 1, 1
Nall, 2, 3
*STEP
*FREQUENCY
3
*NODE FILE
U
*END STEP
