*NODE, NSET=Nall
1, 0, 0, 0
2, 0, 0, 0.1
3, 0, 0.1, 0
4, 0, 0.1, 0.1
5, 0.1, 0, 0
6, 0.1, 0, 0.1
7, 0.1, 0.1, 0
8, 0.1, 0.1, 0.1
9, 0.2, 0, 0
10, 0.2, 0, 0.1
11, 0.2, 0.1, 0
12, 0.2, 0.1, 0.1
13, 0.3, 0, 0
14, 0.3, 0, 0.1
15, 0.3, 0.1, 0
16, 0.3, 0.1, 0.1
17, 0.4, 0, 0
18, 0.4, 0, 0.1
19, 0.4, 0.1, 0
20, 0.4, 0.1, 0.1
** ... 24 like lines cut
*ELEMENT, TYPE=DC3D8, ELSET=Eall
1, 1, 5, 7, 3, 2, 6, 8, 4
2, 5, 9, 11, 7, 6, 10, 12, 8
3, 9, 13, 15, 11, 10, 14, 16, 12
4, 13, 17, 19, 15, 14, 18, 20, 16
5, 17, 21, 23, 19, 18, 22, 24, 20
6, 21, 25, 27, 23, 22, 26, 28, 24
7, 25, 29, 31, 27, 26, 30, 32, 28
8, 29, 33, 35, 31, 30, 34, 36, 32
9, 33, 37, 39, 35, 34, 38, 40, 36
10, 37, 41, 43, 39, 38, 42, 44, 40
*NSET, NSET=Nhot
1, 2, 3, 4
*NSET, NSET=Ncold
41, 42, 43, 44
*NSET, NSET=Nmid
21, 22, 23, 24
*MATERIAL, NAME=STEEL
*CONDUCTIVITY
50.
*SOLID SECTION, ELSET=Eall, MATERIAL=STEEL
*INITIAL CONDITIONS, TYPE=TEMPERATURE
Nall, 0.
*STEP
*HEAT TRANSFER, STEADY STATE
*BOUNDARY
Nhot, 11, 11, 100.
Ncold, 11, 11, 0.
*NODE PRINT, NSET=Nmid
NT
*NODE FILE
NT
*END STEP
